Circuit: * C:\Users\Admin\Documents\LTspiceXVII\schem.asc

Direct Newton iteration for .op point succeeded.

Date: Mon May  1 09:25:10 2023
Total elapsed time: 0.226 seconds.

tnom = 27
temp = 27
method = modified trap
totiter = 2136
traniter = 2098
tranpoints = 1050
accept = 1050
rejected = 0
matrix size = 11
fillins = 2
solver = Normal
Avg thread counts: 2.1/1.3/1.3/1.1
Matrix Compiler1: 566 bytes object code size  0.4/0.3/[0.3]
Matrix Compiler2: 973 bytes object code size  0.4/0.7/[0.3]

